Info: SIMULATION PARAMETERS:
Info: TIMESTEP               1
Info: NUMBER OF STEPS        0
Info: STEPS PER CYCLE        20
Info: FIRST LDB TIMESTEP     100
Info: LAST LDB TIMESTEP     -1
Info: HOM BACKGROUND SCALING 1
Info: MIN ATOMS PER PATCH    40
Info: INITIAL TEMPERATURE    300
Info: CENTER OF MASS MOVING INITIALLY? NO
Info: DIELECTRIC             80
Info: EXCLUDE                SCALED ONE-FOUR
Info: 1-4 ELECTROSTATICS SCALED BY 1
Info: MODIFIED 1-4 VDW PARAMETERS WILL BE USED
Info: DCD FILENAME           simulation-step1.dcd
Info: DCD FREQUENCY          1000
Info: DCD FIRST STEP         1000
Info: NO EXTENDED SYSTEM TRAJECTORY OUTPUT
Info: NO VELOCITY DCD OUTPUT
Info: NO FORCE DCD OUTPUT
Info: OUTPUT FILENAME        simulation-step1
Info: BINARY OUTPUT FILES WILL BE USED
Info: RESTART FILENAME       simulation-step1.restart
Info: RESTART FREQUENCY      1000
Info: BINARY RESTART FILES WILL BE USED
Info: SWITCHING ACTIVE
Info: SWITCHING ON           9
Info: SWITCHING OFF          10
Info: PAIRLIST DISTANCE      11
Info: PAIRLIST SHRINK RATE   0.01
Info: PAIRLIST GROW RATE     0.01
Info: PAIRLIST TRIGGER       0.3
Info: PAIRLISTS PER CYCLE    2
Info: PAIRLISTS ENABLED
Info: MARGIN                 0
Info: HYDROGEN GROUP CUTOFF  2.5
Info: PATCH DIMENSION        13.5
Info: ENERGY OUTPUT STEPS    100
Info: CROSSTERM ENERGY INCLUDED IN DIHEDRAL
Info: TIMING OUTPUT STEPS    1000
Info: PRESSURE OUTPUT STEPS  100
Info: GRID FORCE ACTIVE
Info:  Please include this reference in published work using
Info:  the Gridforce module of NAMD: David Wells, Volha Abramkina,
Info:  and Aleksei Aksimentiev, J. Chem. Phys. 127:125101-10 (2007).
Info: MGRIDFORCE key 0
Info:            Potfile emd_6640-grid.dx
Info:            Scale 0.3 0.3 0.3
Info:            File 3jd8_cryst_altered-grid.pdb
Info:            Col O
Info:            ChargeCol B
Info:            VOffset 0 0 0
Info:            Continuous K1 FALSE
Info:            Continuous K2 FALSE
Info:            Continuous K3 FALSE
Info:            Volts FALSE
Info:            Gridforce-Lite FALSE
Info:            Gridforce-CheckSize TRUE
Info: LANGEVIN DYNAMICS ACTIVE
Info: LANGEVIN TEMPERATURE   300
Info: LANGEVIN USING BBK INTEGRATOR
Info: LANGEVIN DAMPING COEFFICIENT IS 5 INVERSE PS
Info: LANGEVIN DYNAMICS NOT APPLIED TO HYDROGENS
Info: USING VERLET I (r-RESPA) MTS SCHEME.
Info: C1 SPLITTING OF LONG RANGE ELECTROSTATICS
Info: PLACING ATOMS IN PATCHES BY HYDROGEN GROUPS
Info: RIGID BONDS TO HYDROGEN : WATER
Info:         ERROR TOLERANCE : 1e-08
Info:          MAX ITERATIONS : 100
Info: RIGID WATER USING SETTLE ALGORITHM
Info: NONBONDED FORCES EVALUATED EVERY 2 STEPS
Info: RANDOM NUMBER SEED     1515695786
Info: USE HYDROGEN BONDS?    NO
Info: COORDINATE PDB         3jd8_cryst_altered_autopsf.pdb
Info: STRUCTURE FILE         3jd8_cryst_altered_autopsf.psf
Info: PARAMETER file: CHARMM format!
Info: PARAMETERS             /opt/bioxray/programs/vmd-1.93/lib/plugins/noarch/tcl/readcharmmpar1.3/par_all36_lipid.prm
Info: PARAMETERS             /opt/bioxray/programs/vmd-1.93/lib/plugins/noarch/tcl/readcharmmpar1.3/par_all36_prot.prm
Info: PARAMETERS             /opt/bioxray/programs/vmd-1.93/lib/plugins/noarch/tcl/readcharmmpar1.3/par_all36_carb.prm
Info: PARAMETERS             /opt/bioxray/programs/vmd-1.93/lib/plugins/noarch/tcl/readcharmmpar1.3/toppar_water_ions_namd.str
Info: PARAMETERS             /opt/bioxray/programs/vmd-1.93/lib/plugins/noarch/tcl/readcharmmpar1.3/par_all36_cgenff.prm
Info: PARAMETERS             /opt/bioxray/programs/vmd-1.93/lib/plugins/noarch/tcl/readcharmmpar1.3/par_all36_na.prm
Info: USING ARITHMETIC MEAN TO COMBINE L-J SIGMA PARAMETERS
Info: 911 BONDS
Info: 2652 ANGLES
Info: 6440 DIHEDRAL
Info: 189 IMPROPER
Info: 6 CROSSTERM
Info: 350 VDW
Info: 6 VDW_PAIRS
Info: 0 NBTHOLE_PAIRS
Info: READING EXTRA BONDS FILE 3jd8_cryst_altered-extrabonds.txt
Info: READING EXTRA BONDS FILE 3jd8_cryst_altered-extrabonds-cis.txt
Info: READING EXTRA BONDS FILE 3jd8_cryst_altered-extrabonds-chi.txt
Info: READ 369 EXTRA ANGLES
Info: READ 2553 EXTRA DIHEDRALS
Info: READ 2360 EXTRA IMPROPERS
Info: STRUCTURE SUMMARY:
Info: 17558 ATOMS
Info: 18172 BONDS
Info: 32487 ANGLES
Info: 49747 DIHEDRALS
Info: 5339 IMPROPERS
Info: 1125 CROSSTERMS
Info: 0 EXCLUSIONS
Info: 0 RIGID BONDS
Info: 1 GRIDS ACTIVE
Info: 52674 DEGREES OF FREEDOM
Info: 8876 HYDROGEN GROUPS
Info: 4 ATOMS IN LARGEST HYDROGEN GROUP
Info: 8876 MIGRATION GROUPS
Info: 4 ATOMS IN LARGEST MIGRATION GROUP
Info: TOTAL MASS = 126087 amu
Info: TOTAL CHARGE = -32 e
Info: ADDED 96217 IMPLICIT EXCLUSIONS
Info: NONBONDED TABLE R-SQUARED SPACING: 0.0625
Info: NONBONDED TABLE SIZE: 705 POINTS
Info: ORIGINAL ATOMS MINMAX IS 98.46 90.219 82.469  165.442 171.848 239.515
Info: ADJUSTED ATOMS MINMAX IS 113.21 106.558 92.6086  151.811 156.586 221.202
Info: REMOVING COM VELOCITY -0.0320454 0.0122648 -0.0182113
Info: Updated CUDA force table with 4096 elements.
Info: Updated CUDA LJ table with 350 x 350 elements.
Info: Found 425 unique exclusion lists needing 7384 bytes
TCL: Minimizing for 200 steps
ETITLE: TS BOND ANGLE DIHED IMPRP ELECT VDW BOUNDARY MISC KINETIC TOTAL TEMP POTENTIAL TOTAL3 TEMPAVG
ENERGY: 0 3883.2277 4092.7160 10477.5025 48.7244 -115.2183 72259045.4620 0.0000 23774.2640 0.0000 72301206.6782 0.0000 72301206.6782 72301206.6782 0.0000
ENERGY: 40 17101.5435 14182.9884 12197.3508 678.7870 -111.4410 29148.9093 0.0000 23784.6483 0.0000 96982.7863 0.0000 96982.7863 96982.7863 0.0000
ENERGY: 80 7828.3342 12115.7174 12247.8397 643.0853 -105.1817 15423.9604 0.0000 23802.7112 0.0000 71956.4664 0.0000 71956.4664 71956.4664 0.0000
ENERGY: 120 6063.0782 9926.5417 11860.6217 537.8843 -101.1150 10651.4490 0.0000 23827.9620 0.0000 62766.4219 0.0000 62766.4219 62766.4219 0.0000
ENERGY: 160 5687.6361 8231.0626 12141.4780 488.0385 -98.1461 7628.2545 0.0000 23857.1601 0.0000 57935.4838 0.0000 57935.4838 57935.4838 0.0000
ENERGY: 200 5177.1495 7163.9363 11650.4851 451.8160 -95.4544 4572.4605 0.0000 23900.5495 0.0000 52820.9423 0.0000 52820.9423 52820.9423 0.0000
TCL: Running for 2000 steps
Info: Built with CUDA version 6050
Info: NAMD 2.12 for Linux-x86_64-multicore-CUDA
Info: Please visit http://www.ks.uiuc.edu/Research/namd/
Info: for updates, documentation, and support information.
Info: Please cite Phillips et al., J. Comp. Chem. 26:1781-1802 (2005)
Info: in all publications reporting results obtained with NAMD.
Info: Based on Charm++/Converse 60701 for multicore-linux64-iccstatic
Info: Built Wed Dec 21 11:34:15 CST 2016 by jim on harare.ks.uiuc.edu
Info: 1 NAMD  2.12  Linux-x86_64-multicore-CUDA  4    ghost  rtk
Info: Running on 4 processors, 1 nodes, 1 physical nodes.
Info: CPU topology information available.
Info: Charm++/Converse parallel runtime startup completed at 0.00957417 s
Info: 21.4766 MB of memory in use based on /proc/self/stat
Info: Configuration file is simulation-step1.namd
Info: Working in the current directory /u/rtk/github/Namdinator
ETITLE: TS BOND ANGLE DIHED IMPRP ELECT VDW BOUNDARY MISC KINETIC TOTAL TEMP POTENTIAL TOTAL3 TEMPAVG
ENERGY: 200 5177.1495 7163.9363 11650.4851 451.8160 -95.4544 4572.4605 0.0000 23900.5495 15603.4789 68424.4211 298.1368 52820.9423 68324.5184 298.1368
ENERGY: 600 8366.7017 9262.4132 12165.1817 735.4805 -85.8663 -1039.6535 0.0000 24152.0588 13768.4292 67324.7453 263.0743 53556.3161 67416.9615 264.8053
ENERGY: 1000 8604.3143 9639.8416 11898.2379 710.8180 -84.1449 -1261.7254 0.0000 24075.8887 14123.8245 67707.0547 269.8649 53583.2302 67814.5713 268.5292
ENERGY: 1400 8775.1127 9670.5453 11910.0851 730.7794 -84.0679 -1236.6280 0.0000 23989.9609 14661.2015 68416.9891 280.1326 53755.7876 68534.4495 278.0105
ENERGY: 1800 8982.0817 9930.5308 11852.0738 737.1102 -86.1953 -1230.5210 0.0000 23939.4448 15011.8742 69136.3992 286.8329 54124.5250 69260.3348 285.7875
ENERGY: 2200 9095.8138 9924.1436 11870.2232 745.9465 -88.1595 -1338.6066 0.0000 23931.1715 15317.9835 69458.5160 292.6818 54140.5325 69590.9711 290.9189
TCL: Suspending until startup complete.
Info: SIMULATION PARAMETERS:
Info: TIMESTEP               1
Info: NUMBER OF STEPS        0
Info: STEPS PER CYCLE        20
Info: FIRST LDB TIMESTEP     100
Info: LAST LDB TIMESTEP     -1
Info: HOM BACKGROUND SCALING 1
Info: MIN ATOMS PER PATCH    40
Info: INITIAL TEMPERATURE    300
Info: CENTER OF MASS MOVING INITIALLY? NO
Info: DIELECTRIC             80
Info: EXCLUDE                SCALED ONE-FOUR
Info: 1-4 ELECTROSTATICS SCALED BY 1
Info: MODIFIED 1-4 VDW PARAMETERS WILL BE USED
Info: DCD FILENAME           simulation-step1.dcd
Info: DCD FREQUENCY          1000
Info: DCD FIRST STEP         1000
Info: NO EXTENDED SYSTEM TRAJECTORY OUTPUT
Info: NO VELOCITY DCD OUTPUT
Info: NO FORCE DCD OUTPUT
Info: OUTPUT FILENAME        simulation-step1
Info: BINARY OUTPUT FILES WILL BE USED
Info: RESTART FILENAME       simulation-step1.restart
Info: RESTART FREQUENCY      1000
Info: BINARY RESTART FILES WILL BE USED
Info: SWITCHING ACTIVE
Info: SWITCHING ON           9
Info: SWITCHING OFF          10
Info: PAIRLIST DISTANCE      11
Info: PAIRLIST SHRINK RATE   0.01
Info: PAIRLIST GROW RATE     0.01
Info: PAIRLIST TRIGGER       0.3
Info: PAIRLISTS PER CYCLE    2
Info: PAIRLISTS ENABLED
Info: MARGIN                 0
Info: HYDROGEN GROUP CUTOFF  2.5
Info: PATCH DIMENSION        13.5
Info: ENERGY OUTPUT STEPS    100
Info: CROSSTERM ENERGY INCLUDED IN DIHEDRAL
Info: TIMING OUTPUT STEPS    1000
Info: PRESSURE OUTPUT STEPS  100
Info: GRID FORCE ACTIVE
Info:  Please include this reference in published work using
Info:  the Gridforce module of NAMD: David Wells, Volha Abramkina,
Info:  and Aleksei Aksimentiev, J. Chem. Phys. 127:125101-10 (2007).
Info: MGRIDFORCE key 0
Info:            Potfile emd_6640-grid.dx
Info:            Scale 0.3 0.3 0.3
Info:            File 3jd8_cryst_altered-grid.pdb
Info:            Col O
Info:            ChargeCol B
Info:            VOffset 0 0 0
Info:            Continuous K1 FALSE
Info:            Continuous K2 FALSE
Info:            Continuous K3 FALSE
Info:            Volts FALSE
Info:            Gridforce-Lite FALSE
Info:            Gridforce-CheckSize TRUE
Info: LANGEVIN DYNAMICS ACTIVE
Info: LANGEVIN TEMPERATURE   300
Info: LANGEVIN USING BBK INTEGRATOR
Info: LANGEVIN DAMPING COEFFICIENT IS 5 INVERSE PS
Info: LANGEVIN DYNAMICS NOT APPLIED TO HYDROGENS
Info: USING VERLET I (r-RESPA) MTS SCHEME.
Info: C1 SPLITTING OF LONG RANGE ELECTROSTATICS
Info: PLACING ATOMS IN PATCHES BY HYDROGEN GROUPS
Info: RIGID BONDS TO HYDROGEN : WATER
Info:         ERROR TOLERANCE : 1e-08
Info:          MAX ITERATIONS : 100
Info: RIGID WATER USING SETTLE ALGORITHM
Info: NONBONDED FORCES EVALUATED EVERY 2 STEPS
Info: RANDOM NUMBER SEED     1515696109
Info: USE HYDROGEN BONDS?    NO
Info: COORDINATE PDB         3jd8_cryst_altered_autopsf.pdb
Info: STRUCTURE FILE         3jd8_cryst_altered_autopsf.psf
Info: PARAMETER file: CHARMM format!
Info: PARAMETERS             /opt/bioxray/programs/vmd-1.93/lib/plugins/noarch/tcl/readcharmmpar1.3/par_all36_lipid.prm
Info: PARAMETERS             /opt/bioxray/programs/vmd-1.93/lib/plugins/noarch/tcl/readcharmmpar1.3/par_all36_prot.prm
Info: PARAMETERS             /opt/bioxray/programs/vmd-1.93/lib/plugins/noarch/tcl/readcharmmpar1.3/par_all36_carb.prm
Info: PARAMETERS             /opt/bioxray/programs/vmd-1.93/lib/plugins/noarch/tcl/readcharmmpar1.3/toppar_water_ions_namd.str
Info: PARAMETERS             /opt/bioxray/programs/vmd-1.93/lib/plugins/noarch/tcl/readcharmmpar1.3/par_all36_cgenff.prm
Info: PARAMETERS             /opt/bioxray/programs/vmd-1.93/lib/plugins/noarch/tcl/readcharmmpar1.3/par_all36_na.prm
Info: USING ARITHMETIC MEAN TO COMBINE L-J SIGMA PARAMETERS
Info: SKIPPING rtf SECTION IN STREAM FILE
Info: 911 BONDS
Info: 2652 ANGLES
Info: 6440 DIHEDRAL
Info: 189 IMPROPER
Info: 6 CROSSTERM
Info: 350 VDW
Info: 6 VDW_PAIRS
Info: 0 NBTHOLE_PAIRS
Info: READING EXTRA BONDS FILE 3jd8_cryst_altered-extrabonds.txt
Info: READING EXTRA BONDS FILE 3jd8_cryst_altered-extrabonds-cis.txt
Info: READING EXTRA BONDS FILE 3jd8_cryst_altered-extrabonds-chi.txt
Info: READ 369 EXTRA BONDS
Info: READ 369 EXTRA ANGLES
Info: READ 2553 EXTRA DIHEDRALS
Info: READ 2360 EXTRA IMPROPERS
Info: STRUCTURE SUMMARY:
Info: 17558 ATOMS
Info: 18172 BONDS
Info: 32487 ANGLES
Info: 49747 DIHEDRALS
Info: 5339 IMPROPERS
Info: 1125 CROSSTERMS
Info: 0 EXCLUSIONS
Info: 0 RIGID BONDS
Info: 1 GRIDS ACTIVE
Info: 52674 DEGREES OF FREEDOM
Info: 8876 HYDROGEN GROUPS
Info: 4 ATOMS IN LARGEST HYDROGEN GROUP
Info: 8876 MIGRATION GROUPS
Info: 4 ATOMS IN LARGEST MIGRATION GROUP
Info: TOTAL MASS = 126087 amu
Info: TOTAL CHARGE = -32 e
Info: NONBONDED TABLE R-SQUARED SPACING: 0.0625
Info: NONBONDED TABLE SIZE: 705 POINTS
Info: ORIGINAL ATOMS MINMAX IS 98.46 90.219 82.469  165.442 171.848 239.515
Info: ADJUSTED ATOMS MINMAX IS 113.21 106.558 92.6086  151.811 156.586 221.202
Info: REMOVING COM VELOCITY 0.0631861 -0.0198403 0.0289997
Info: Updated CUDA force table with 4096 elements.
Info: Updated CUDA LJ table with 350 x 350 elements.
Info: Found 425 unique exclusion lists needing 7384 bytes
TCL: Minimizing for 200 steps
ETITLE: TS BOND ANGLE DIHED IMPRP ELECT VDW BOUNDARY MISC KINETIC TOTAL TEMP POTENTIAL TOTAL3 TEMPAVG
ENERGY: 0 3883.2277 4092.7160 10477.5025 48.7244 -115.2183 72259045.4620 0.0000 23774.2640 0.0000 72301206.6782 0.0000 72301206.6782 72301206.6782 0.0000
ENERGY: 40 17101.4036 14182.9887 12197.3546 678.7886 -111.4409 29148.7010 0.0000 23784.6484 0.0000 96982.4439 0.0000 96982.4439 96982.4439 0.0000
ENERGY: 80 7738.6293 12051.1853 11922.7645 630.2367 -105.1302 15306.9078 0.0000 23803.0998 0.0000 71347.6934 0.0000 71347.6934 71347.6934 0.0000
ENERGY: 120 6250.1736 9459.4839 12210.9890 573.3686 -100.1407 9584.9319 0.0000 23836.8462 0.0000 61815.6526 0.0000 61815.6526 61815.6526 0.0000
ENERGY: 160 5461.4734 7920.5412 11813.1471 501.6066 -95.3623 4999.8071 0.0000 23891.7080 0.0000 54492.9211 0.0000 54492.9211 54492.9211 0.0000
ENERGY: 200 5085.6475 7002.6718 11588.3986 472.0397 -94.8588 3553.7189 0.0000 23919.3957 0.0000 51527.0134 0.0000 51527.0134 51527.0134 0.0000
TCL: Running for 2000 steps
Info: Built with CUDA version 6050
Info: NAMD 2.12 for Linux-x86_64-multicore-CUDA
Info: Please visit http://www.ks.uiuc.edu/Research/namd/
Info: for updates, documentation, and support information.
Info: Please cite Phillips et al., J. Comp. Chem. 26:1781-1802 (2005)
Info: in all publications reporting results obtained with NAMD.
Info: Based on Charm++/Converse 60701 for multicore-linux64-iccstatic
Info: Built Wed Dec 21 11:34:15 CST 2016 by jim on harare.ks.uiuc.edu
Info: 1 NAMD  2.12  Linux-x86_64-multicore-CUDA  4    ghost  rtk
Info: Running on 4 processors, 1 nodes, 1 physical nodes.
Info: CPU topology information available.
Info: Charm++/Converse parallel runtime startup completed at 0.0788081 s
Info: 22.4727 MB of memory in use based on /proc/self/stat
Info: Configuration file is simulation-step1.namd
Info: Working in the current directory /u/rtk/github/Namdinator
ETITLE: TS BOND ANGLE DIHED IMPRP ELECT VDW BOUNDARY MISC KINETIC TOTAL TEMP POTENTIAL TOTAL3 TEMPAVG
ENERGY: 200 5085.6475 7002.6718 11588.3986 472.0397 -94.8588 3553.7189 0.0000 23919.3957 15675.7498 67202.7632 299.5176 51527.0134 67124.1878 299.5176
ENERGY: 600 8215.9888 9184.2783 12162.4835 714.5916 -80.7615 -982.9071 0.0000 24118.9291 13469.3200 66801.9227 257.3592 53332.6027 66876.9027 257.7110
ENERGY: 1000 8524.1559 9517.0506 11981.4072 720.1051 -83.2319 -1283.9707 0.0000 24056.3692 14291.4835 67723.3689 273.0684 53431.8854 67845.1836 269.8261
ENERGY: 1400 8825.5372 9744.4706 11941.6732 753.9431 -85.1467 -1310.0901 0.0000 23991.2892 14551.0428 68412.7192 278.0278 53861.6764 68527.1700 278.5106
ENERGY: 1800 8975.6119 9926.9466 11913.3228 749.3384 -83.4990 -1366.0574 0.0000 23916.2728 14784.6652 68816.6012 282.4916 54031.9360 68929.7875 284.0260
ENERGY: 2200 9043.6203 9965.7090 11875.3720 754.6348 -84.1941 -1386.1797 0.0000 23919.0995 15128.3315 69216.3933 289.0581 54088.0618 69332.7544 287.8767
TCL: Suspending until startup complete.
Info: SIMULATION PARAMETERS:
Info: TIMESTEP               1
Info: NUMBER OF STEPS        0
Info: STEPS PER CYCLE        20
Info: FIRST LDB TIMESTEP     100
Info: LAST LDB TIMESTEP     -1
Info: HOM BACKGROUND SCALING 1
Info: MIN ATOMS PER PATCH    40
Info: INITIAL TEMPERATURE    300
Info: CENTER OF MASS MOVING INITIALLY? NO
Info: DIELECTRIC             80
Info: EXCLUDE                SCALED ONE-FOUR
Info: 1-4 ELECTROSTATICS SCALED BY 1
Info: MODIFIED 1-4 VDW PARAMETERS WILL BE USED
Info: DCD FILENAME           simulation-step1.dcd
Info: DCD FREQUENCY          1000
Info: DCD FIRST STEP         1000
Info: NO EXTENDED SYSTEM TRAJECTORY OUTPUT
Info: NO VELOCITY DCD OUTPUT
Info: NO FORCE DCD OUTPUT
Info: OUTPUT FILENAME        simulation-step1
Info: BINARY OUTPUT FILES WILL BE USED
Info: RESTART FILENAME       simulation-step1.restart
Info: RESTART FREQUENCY      1000
Info: BINARY RESTART FILES WILL BE USED
Info: SWITCHING ACTIVE
Info: SWITCHING ON           9
Info: SWITCHING OFF          10
Info: PAIRLIST DISTANCE      11
Info: PAIRLIST SHRINK RATE   0.01
Info: PAIRLIST GROW RATE     0.01
Info: PAIRLIST TRIGGER       0.3
Info: PAIRLISTS PER CYCLE    2
Info: PAIRLISTS ENABLED
Info: MARGIN                 0
Info: HYDROGEN GROUP CUTOFF  2.5
Info: PATCH DIMENSION        13.5
Info: ENERGY OUTPUT STEPS    100
Info: CROSSTERM ENERGY INCLUDED IN DIHEDRAL
Info: TIMING OUTPUT STEPS    1000
Info: PRESSURE OUTPUT STEPS  100
Info: GRID FORCE ACTIVE
Info:  Please include this reference in published work using
Info:  the Gridforce module of NAMD: David Wells, Volha Abramkina,
Info:  and Aleksei Aksimentiev, J. Chem. Phys. 127:125101-10 (2007).
Info: MGRIDFORCE key 0
Info:            Potfile emd_6640-grid.dx
Info:            Scale 0.3 0.3 0.3
Info:            File 3jd8_cryst_altered-grid.pdb
Info:            Col O
Info:            ChargeCol B
Info:            VOffset 0 0 0
Info:            Continuous K1 FALSE
Info:            Continuous K2 FALSE
Info:            Continuous K3 FALSE
Info:            Volts FALSE
Info:            Gridforce-Lite FALSE
Info:            Gridforce-CheckSize TRUE
Info: LANGEVIN DYNAMICS ACTIVE
Info: LANGEVIN TEMPERATURE   300
Info: LANGEVIN USING BBK INTEGRATOR
Info: LANGEVIN DAMPING COEFFICIENT IS 5 INVERSE PS
Info: LANGEVIN DYNAMICS NOT APPLIED TO HYDROGENS
Info: USING VERLET I (r-RESPA) MTS SCHEME.
Info: C1 SPLITTING OF LONG RANGE ELECTROSTATICS
Info: PLACING ATOMS IN PATCHES BY HYDROGEN GROUPS
Info: RIGID BONDS TO HYDROGEN : WATER
Info:         ERROR TOLERANCE : 1e-08
Info:          MAX ITERATIONS : 100
Info: RIGID WATER USING SETTLE ALGORITHM
Info: NONBONDED FORCES EVALUATED EVERY 2 STEPS
Info: RANDOM NUMBER SEED     1515696870
Info: USE HYDROGEN BONDS?    NO
Info: COORDINATE PDB         3jd8_cryst_altered_autopsf.pdb
Info: STRUCTURE FILE         3jd8_cryst_altered_autopsf.psf
Info: PARAMETER file: CHARMM format!
Info: PARAMETERS             /opt/bioxray/programs/vmd-1.93/lib/plugins/noarch/tcl/readcharmmpar1.3/par_all36_lipid.prm
Info: PARAMETERS             /opt/bioxray/programs/vmd-1.93/lib/plugins/noarch/tcl/readcharmmpar1.3/par_all36_prot.prm
Info: PARAMETERS             /opt/bioxray/programs/vmd-1.93/lib/plugins/noarch/tcl/readcharmmpar1.3/par_all36_carb.prm
Info: PARAMETERS             /opt/bioxray/programs/vmd-1.93/lib/plugins/noarch/tcl/readcharmmpar1.3/toppar_water_ions_namd.str
Info: PARAMETERS             /opt/bioxray/programs/vmd-1.93/lib/plugins/noarch/tcl/readcharmmpar1.3/par_all36_cgenff.prm
Info: PARAMETERS             /opt/bioxray/programs/vmd-1.93/lib/plugins/noarch/tcl/readcharmmpar1.3/par_all36_na.prm
Info: USING ARITHMETIC MEAN TO COMBINE L-J SIGMA PARAMETERS
Info: SKIPPING rtf SECTION IN STREAM FILE
Info: 911 BONDS
Info: 2652 ANGLES
Info: 6440 DIHEDRAL
Info: 189 IMPROPER
Info: 6 CROSSTERM
Info: 350 VDW
Info: 6 VDW_PAIRS
Info: 0 NBTHOLE_PAIRS
Info: READING EXTRA BONDS FILE 3jd8_cryst_altered-extrabonds.txt
Info: READING EXTRA BONDS FILE 3jd8_cryst_altered-extrabonds-cis.txt
Info: READING EXTRA BONDS FILE 3jd8_cryst_altered-extrabonds-chi.txt
Info: READ 369 EXTRA BONDS
Info: READ 369 EXTRA ANGLES
Info: READ 2553 EXTRA DIHEDRALS
Info: READ 2360 EXTRA IMPROPERS
Info: STRUCTURE SUMMARY:
Info: 17558 ATOMS
Info: 18172 BONDS
Info: 32487 ANGLES
Info: 49747 DIHEDRALS
Info: 5339 IMPROPERS
Info: 1125 CROSSTERMS
Info: 0 EXCLUSIONS
Info: 0 RIGID BONDS
Info: 1 GRIDS ACTIVE
Info: 52674 DEGREES OF FREEDOM
Info: 8876 HYDROGEN GROUPS
Info: 4 ATOMS IN LARGEST HYDROGEN GROUP
Info: 8876 MIGRATION GROUPS
Info: 4 ATOMS IN LARGEST MIGRATION GROUP
Info: TOTAL MASS = 126087 amu
Info: TOTAL CHARGE = -32 e
Info: ADDED 96217 IMPLICIT EXCLUSIONS
Info: NONBONDED TABLE R-SQUARED SPACING: 0.0625
Info: NONBONDED TABLE SIZE: 705 POINTS
Info: ORIGINAL ATOMS MINMAX IS 98.46 90.219 82.469  165.442 171.848 239.515
Info: ADJUSTED ATOMS MINMAX IS 113.21 106.558 92.6086  151.811 156.586 221.202
Info: REMOVING COM VELOCITY -0.00832462 0.0414567 0.00586528
Info: Updated CUDA force table with 4096 elements.
Info: Updated CUDA LJ table with 350 x 350 elements.
Info: Found 425 unique exclusion lists needing 7384 bytes
TCL: Minimizing for 200 steps
ETITLE: TS BOND ANGLE DIHED IMPRP ELECT VDW BOUNDARY MISC KINETIC TOTAL TEMP POTENTIAL TOTAL3 TEMPAVG
ENERGY: 0 3883.2277 4092.7160 10477.5025 48.7244 -115.2183 72259045.4620 0.0000 23774.2640 0.0000 72301206.6782 0.0000 72301206.6782 72301206.6782 0.0000
ENERGY: 40 17101.4522 14182.9893 12197.3803 678.7899 -111.4410 29148.8546 0.0000 23784.6483 0.0000 96982.6736 0.0000 96982.6736 96982.6736 0.0000
ENERGY: 80 7738.5332 12051.1790 11922.4141 630.2219 -105.1304 15307.1782 0.0000 23803.0989 0.0000 71347.4948 0.0000 71347.4948 71347.4948 0.0000
ENERGY: 120 6194.3075 9852.1426 12104.3111 553.8992 -100.8143 10433.9913 0.0000 23830.2654 0.0000 62868.1027 0.0000 62868.1027 62868.1027 0.0000
ENERGY: 160 5534.5761 8156.6995 11713.9837 457.1589 -98.1580 7579.4145 0.0000 23857.5522 0.0000 57201.2267 0.0000 57201.2267 57201.2267 0.0000
ENERGY: 200 5201.8317 7082.3119 11606.6735 461.5215 -95.0956 4213.1268 0.0000 23906.4266 0.0000 52376.7965 0.0000 52376.7965 52376.7965 0.0000
TCL: Running for 2000 steps
Info: Built with CUDA version 6050
Info: NAMD 2.12 for Linux-x86_64-multicore-CUDA
Info: Please visit http://www.ks.uiuc.edu/Research/namd/
Info: for updates, documentation, and support information.
Info: Please cite Phillips et al., J. Comp. Chem. 26:1781-1802 (2005)
Info: in all publications reporting results obtained with NAMD.
Info: Based on Charm++/Converse 60701 for multicore-linux64-iccstatic
Info: Built Wed Dec 21 11:34:15 CST 2016 by jim on harare.ks.uiuc.edu
Info: 1 NAMD  2.12  Linux-x86_64-multicore-CUDA  4    ghost  rtk
Info: Running on 4 processors, 1 nodes, 1 physical nodes.
Info: CPU topology information available.
Info: Charm++/Converse parallel runtime startup completed at 0.0108428 s
Info: 21.4375 MB of memory in use based on /proc/self/stat
Info: Configuration file is simulation-step1.namd
Info: Working in the current directory /u/rtk/github/Namdinator
ETITLE: TS BOND ANGLE DIHED IMPRP ELECT VDW BOUNDARY MISC KINETIC TOTAL TEMP POTENTIAL TOTAL3 TEMPAVG
ENERGY: 200 5201.8317 7082.3119 11606.6735 461.5215 -95.0956 4213.1268 0.0000 23906.4266 15582.6194 67959.4159 297.7382 52376.7965 67868.5330 297.7382
ENERGY: 600 8301.8951 9325.5714 12183.1879 739.9863 -83.3244 -966.1951 0.0000 24133.3359 13793.5135 67427.9707 263.5536 53634.4571 67515.6942 264.8004
ENERGY: 1000 8565.1567 9554.7171 12005.3999 733.6180 -83.5842 -1192.3895 0.0000 24071.8168 14305.9994 67960.7342 273.3457 53654.7348 68078.9400 271.7370
ENERGY: 1400 8808.6516 9819.2182 11955.0535 740.4293 -84.9874 -1271.7989 0.0000 23994.4918 14749.8225 68710.8806 281.8259 53961.0581 68835.5151 281.3722
ENERGY: 1800 8923.1287 9946.5734 11927.9640 750.1195 -84.7235 -1309.5360 0.0000 23913.8437 15020.8529 69088.2227 287.0045 54067.3698 69207.4360 286.1826
ENERGY: 2200 9073.7380 9988.6571 11898.3468 740.6533 -85.2048 -1284.2643 0.0000 23882.6248 15131.4476 69345.9985 289.1176 54214.5510 69474.2402 290.1779
TCL: Suspending until startup complete.
Info: SIMULATION PARAMETERS:
Info: TIMESTEP               1
Info: NUMBER OF STEPS        0
Info: STEPS PER CYCLE        20
Info: FIRST LDB TIMESTEP     100
Info: LAST LDB TIMESTEP     -1
Info: HOM BACKGROUND SCALING 1
Info: MIN ATOMS PER PATCH    40
Info: INITIAL TEMPERATURE    300
Info: CENTER OF MASS MOVING INITIALLY? NO
Info: DIELECTRIC             80
Info: EXCLUDE                SCALED ONE-FOUR
Info: 1-4 ELECTROSTATICS SCALED BY 1
Info: MODIFIED 1-4 VDW PARAMETERS WILL BE USED
Info: DCD FILENAME           simulation-step1.dcd
Info: DCD FREQUENCY          1000
Info: DCD FIRST STEP         1000
Info: NO EXTENDED SYSTEM TRAJECTORY OUTPUT
Info: NO VELOCITY DCD OUTPUT
Info: NO FORCE DCD OUTPUT
Info: OUTPUT FILENAME        simulation-step1
Info: BINARY OUTPUT FILES WILL BE USED
Info: RESTART FILENAME       simulation-step1.restart
Info: RESTART FREQUENCY      1000
Info: BINARY RESTART FILES WILL BE USED
Info: SWITCHING ACTIVE
Info: SWITCHING ON           9
Info: SWITCHING OFF          10
Info: PAIRLIST DISTANCE      11
Info: PAIRLIST SHRINK RATE   0.01
Info: PAIRLIST GROW RATE     0.01
Info: PAIRLIST TRIGGER       0.3
Info: PAIRLISTS PER CYCLE    2
Info: PAIRLISTS ENABLED
Info: MARGIN                 0
Info: HYDROGEN GROUP CUTOFF  2.5
Info: PATCH DIMENSION        13.5
Info: ENERGY OUTPUT STEPS    100
Info: CROSSTERM ENERGY INCLUDED IN DIHEDRAL
Info: TIMING OUTPUT STEPS    1000
Info: PRESSURE OUTPUT STEPS  100
Info: GRID FORCE ACTIVE
Info:  Please include this reference in published work using
Info:  the Gridforce module of NAMD: David Wells, Volha Abramkina,
Info:  and Aleksei Aksimentiev, J. Chem. Phys. 127:125101-10 (2007).
Info: MGRIDFORCE key 0
Info:            Potfile emd_6640-grid.dx
Info:            Scale 0.3 0.3 0.3
Info:            File 3jd8_cryst_altered-grid.pdb
Info:            Col O
Info:            ChargeCol B
Info:            VOffset 0 0 0
Info:            Continuous K1 FALSE
Info:            Continuous K2 FALSE
Info:            Continuous K3 FALSE
Info:            Volts FALSE
Info:            Gridforce-Lite FALSE
Info:            Gridforce-CheckSize TRUE
Info: LANGEVIN DYNAMICS ACTIVE
Info: LANGEVIN TEMPERATURE   300
Info: LANGEVIN USING BBK INTEGRATOR
Info: LANGEVIN DAMPING COEFFICIENT IS 5 INVERSE PS
Info: LANGEVIN DYNAMICS NOT APPLIED TO HYDROGENS
Info: USING VERLET I (r-RESPA) MTS SCHEME.
Info: C1 SPLITTING OF LONG RANGE ELECTROSTATICS
Info: PLACING ATOMS IN PATCHES BY HYDROGEN GROUPS
Info: RIGID BONDS TO HYDROGEN : WATER
Info:         ERROR TOLERANCE : 1e-08
Info:          MAX ITERATIONS : 100
Info: RIGID WATER USING SETTLE ALGORITHM
Info: NONBONDED FORCES EVALUATED EVERY 2 STEPS
Info: RANDOM NUMBER SEED     1516086479
Info: USE HYDROGEN BONDS?    NO
Info: COORDINATE PDB         3jd8_cryst_altered_autopsf.pdb
Info: STRUCTURE FILE         3jd8_cryst_altered_autopsf.psf
Info: PARAMETER file: CHARMM format!
Info: PARAMETERS             /opt/bioxray/programs/vmd-1.93/lib/plugins/noarch/tcl/readcharmmpar1.3/par_all36_lipid.prm
Info: PARAMETERS             /opt/bioxray/programs/vmd-1.93/lib/plugins/noarch/tcl/readcharmmpar1.3/par_all36_prot.prm
Info: PARAMETERS             /opt/bioxray/programs/vmd-1.93/lib/plugins/noarch/tcl/readcharmmpar1.3/par_all36_carb.prm
Info: PARAMETERS             /opt/bioxray/programs/vmd-1.93/lib/plugins/noarch/tcl/readcharmmpar1.3/toppar_water_ions_namd.str
Info: PARAMETERS             /opt/bioxray/programs/vmd-1.93/lib/plugins/noarch/tcl/readcharmmpar1.3/par_all36_cgenff.prm
Info: PARAMETERS             /opt/bioxray/programs/vmd-1.93/lib/plugins/noarch/tcl/readcharmmpar1.3/par_all36_na.prm
Info: USING ARITHMETIC MEAN TO COMBINE L-J SIGMA PARAMETERS
Info: 911 BONDS
Info: 2652 ANGLES
Info: 6440 DIHEDRAL
Info: 189 IMPROPER
Info: 6 CROSSTERM
Info: 350 VDW
Info: 6 VDW_PAIRS
Info: 0 NBTHOLE_PAIRS
Info: READING EXTRA BONDS FILE 3jd8_cryst_altered-extrabonds.txt
Info: READING EXTRA BONDS FILE 3jd8_cryst_altered-extrabonds-cis.txt
Info: READING EXTRA BONDS FILE 3jd8_cryst_altered-extrabonds-chi.txt
Info: READ 369 EXTRA BONDS
Info: READ 369 EXTRA ANGLES
Info: READ 2553 EXTRA DIHEDRALS
Info: READ 2360 EXTRA IMPROPERS
Info: STRUCTURE SUMMARY:
Info: 17558 ATOMS
Info: 18172 BONDS
Info: 32487 ANGLES
Info: 49747 DIHEDRALS
Info: 5339 IMPROPERS
Info: 1125 CROSSTERMS
Info: 0 EXCLUSIONS
Info: 0 RIGID BONDS
Info: 1 GRIDS ACTIVE
Info: 52674 DEGREES OF FREEDOM
Info: 8876 HYDROGEN GROUPS
Info: 4 ATOMS IN LARGEST HYDROGEN GROUP
Info: 8876 MIGRATION GROUPS
Info: 4 ATOMS IN LARGEST MIGRATION GROUP
Info: TOTAL MASS = 126087 amu
Info: TOTAL CHARGE = -32 e
Info: ADDED 96217 IMPLICIT EXCLUSIONS
Info: NONBONDED TABLE R-SQUARED SPACING: 0.0625
Info: NONBONDED TABLE SIZE: 705 POINTS
Info: ORIGINAL ATOMS MINMAX IS 98.46 90.219 82.469  165.442 171.848 239.515
Info: ADJUSTED ATOMS MINMAX IS 113.21 106.558 92.6086  151.811 156.586 221.202
Info: REMOVING COM VELOCITY 0.0202249 0.0212717 -0.0295966
Info: Updated CUDA force table with 4096 elements.
Info: Updated CUDA LJ table with 350 x 350 elements.
Info: Found 425 unique exclusion lists needing 7384 bytes
TCL: Minimizing for 200 steps
ETITLE: TS BOND ANGLE DIHED IMPRP ELECT VDW BOUNDARY MISC KINETIC TOTAL TEMP POTENTIAL TOTAL3 TEMPAVG
ENERGY: 0 3883.2277 4092.7160 10477.5025 48.7244 -115.2183 72259045.4620 0.0000 23774.2640 0.0000 72301206.6782 0.0000 72301206.6782 72301206.6782 0.0000
ENERGY: 40 17101.4196 14182.9891 12197.3532 678.7888 -111.4409 29148.7102 0.0000 23784.6484 0.0000 96982.4683 0.0000 96982.4683 96982.4683 0.0000
ENERGY: 80 7738.6584 12051.1851 11922.9017 630.2406 -105.1299 15306.7955 0.0000 23803.1002 0.0000 71347.7515 0.0000 71347.7515 71347.7515 0.0000
ENERGY: 120 6130.3357 9331.8860 12049.6097 542.2386 -99.6830 9300.5403 0.0000 23839.3506 0.0000 61094.2777 0.0000 61094.2777 61094.2777 0.0000
ENERGY: 160 5501.3714 8029.0452 11883.6552 478.9524 -95.2705 5317.9330 0.0000 23887.5322 0.0000 55003.2189 0.0000 55003.2189 55003.2189 0.0000
ENERGY: 200 5092.0819 7112.3081 11578.7557 447.7116 -94.7785 3930.9637 0.0000 23911.2007 0.0000 51978.2432 0.0000 51978.2432 51978.2432 0.0000
TCL: Running for 2000 steps
ETITLE: TS BOND ANGLE DIHED IMPRP ELECT VDW BOUNDARY MISC KINETIC TOTAL TEMP POTENTIAL TOTAL3 TEMPAVG
ENERGY: 200 5092.0819 7112.3081 11578.7557 447.7116 -94.7785 3930.9637 0.0000 23911.2007 15594.3377 67572.5809 297.9621 51978.2432 67495.8001 297.9621
ENERGY: 600 8245.3119 9338.5808 12113.0118 750.9481 -87.6651 -929.8425 0.0000 24124.3267 13672.2965 67226.9682 261.2375 53554.6717 67313.0138 261.8883
ENERGY: 1000 8543.6383 9685.5459 11884.8050 722.2511 -82.8699 -1096.5635 0.0000 24090.4856 14157.7276 67905.0202 270.5127 53747.2925 68013.0468 270.6821
ENERGY: 1400 8818.9799 9715.1030 11870.0878 748.9364 -85.8548 -1236.5648 0.0000 24011.8926 14431.1284 68273.7085 275.7366 53842.5801 68383.9843 276.7588
ENERGY: 1800 8953.7708 9946.7295 11874.5799 748.3775 -86.6546 -1278.9627 0.0000 23977.8302 14923.6933 69059.3639 285.1480 54135.6707 69174.7918 285.6908
ENERGY: 2200 9072.9085 9927.3876 11903.7756 783.8720 -85.6807 -1374.0178 0.0000 23913.3047 15081.9613 69223.5112 288.1721 54141.5499 69348.8517 288.2530
